
/*--------------------------------*- C++ -*----------------------------------*\
| =========                 |                                                 |
| \\      /  F ield         | OpenFOAM: The Open Source CFD Toolbox           |
|  \\    /   O peration     | Version:  2.2.1                                 |
|   \\  /    A nd           | Web:      www.OpenFOAM.org                      |
|    \\/     M anipulation  |                                                 |
\*---------------------------------------------------------------------------*/
FoamFile
{
    version     2.0;
    format      ascii;
    class       dictionary;
    location    "constant";
    object      weights;
}
// * * * * * * * * * * * * * * * * * * * * * * * * * * * * * * * * * * * * * //
101
(
 5.279730632859555e-02
 2.413591146450083e-01
 9.050966799187808e-02
 2.413591146450083e-01
 1.055946126571911e-01
 2.413591146450083e-01
 9.050966799187808e-02
 2.413591146450083e-01
 1.055946126571911e-01
 2.413591146450083e-01
 9.050966799187808e-02
 2.413591146450083e-01
 1.055946126571911e-01
 2.413591146450083e-01
 9.050966799187808e-02
 2.413591146450083e-01
 1.055946126571911e-01
 2.413591146450083e-01
 9.050966799187808e-02
 2.413591146450083e-01
 1.055946126571911e-01
 2.413591146450083e-01
 9.050966799187808e-02
 2.413591146450083e-01
 1.055946126571911e-01
 2.413591146450083e-01
 9.050966799187808e-02
 2.413591146450083e-01
 1.055946126571911e-01
 2.413591146450083e-01
 9.050966799187808e-02
 2.413591146450083e-01
 1.055946126571911e-01
 2.413591146450083e-01
 9.050966799187808e-02
 2.413591146450083e-01
 1.055946126571911e-01
 2.413591146450083e-01
 9.050966799187808e-02
 2.413591146450083e-01
 1.055946126571911e-01
 2.413591146450083e-01
 9.050966799187808e-02
 2.413591146450083e-01
 1.055946126571911e-01
 2.413591146450083e-01
 9.050966799187808e-02
 2.413591146450083e-01
 1.055946126571911e-01
 2.413591146450083e-01
 9.050966799187808e-02
 2.413591146450083e-01
 1.055946126571911e-01
 2.413591146450083e-01
 9.050966799187808e-02
 2.413591146450083e-01
 1.055946126571911e-01
 2.413591146450083e-01
 9.050966799187808e-02
 2.413591146450083e-01
 1.055946126571911e-01
 2.413591146450083e-01
 9.050966799187808e-02
 2.413591146450083e-01
 1.055946126571911e-01
 2.413591146450083e-01
 9.050966799187808e-02
 2.413591146450083e-01
 1.055946126571911e-01
 2.413591146450083e-01
 9.050966799187808e-02
 2.413591146450083e-01
 1.055946126571911e-01
 2.413591146450083e-01
 9.050966799187808e-02
 2.413591146450083e-01
 1.055946126571911e-01
 2.413591146450083e-01
 9.050966799187808e-02
 2.413591146450083e-01
 1.055946126571911e-01
 2.413591146450083e-01
 9.050966799187808e-02
 2.413591146450083e-01
 1.055946126571911e-01
 2.413591146450083e-01
 9.050966799187808e-02
 2.413591146450083e-01
 1.055946126571911e-01
 2.413591146450083e-01
 9.050966799187808e-02
 2.413591146450083e-01
 1.055946126571911e-01
 2.413591146450083e-01
 9.050966799187808e-02
 2.413591146450083e-01
 1.055946126571911e-01
 2.413591146450083e-01
 9.050966799187808e-02
 2.413591146450083e-01
 5.279730632859555e-02
);