
/*--------------------------------*- C++ -*----------------------------------*\
| =========                 |                                                 |
| \\      /  F ield         | OpenFOAM: The Open Source CFD Toolbox           |
|  \\    /   O peration     | Version:  2.2.1                                 |
|   \\  /    A nd           | Web:      www.OpenFOAM.org                      |
|    \\/     M anipulation  |                                                 |
\*---------------------------------------------------------------------------*/
FoamFile
{
    version     2.0;
    format      ascii;
    class       dictionary;
    location    "constant";
    object      weights;
}
// * * * * * * * * * * * * * * * * * * * * * * * * * * * * * * * * * * * * * //
32
(
 1.692674013176493e+00
 1.306936628976981e+00
 1.136045488731792e+00
 1.030730124959907e+00
 9.547769778054921e-01
 8.939244043475808e-01
 8.408127344287614e-01
 7.907426108673946e-01
 7.400736946423200e-01
 6.854878634613080e-01
 6.236274309346648e-01
 5.510027830369928e-01
 4.642394913266159e-01
 3.608171574554479e-01
 2.403519112318920e-01
 1.061455964846372e-01
 1.061455964846372e-01
 2.403519112318920e-01
 3.608171574554479e-01
 4.642394913266159e-01
 5.510027830369928e-01
 6.236274309346648e-01
 6.854878634613080e-01
 7.400736946423200e-01
 7.907426108673946e-01
 8.408127344287614e-01
 8.939244043475808e-01
 9.547769778054921e-01
 1.030730124959907e+00
 1.136045488731792e+00
 1.306936628976981e+00
 1.692674013176493e+00
);