
/*--------------------------------*- C++ -*----------------------------------*\
| =========                 |                                                 |
| \\      /  F ield         | OpenFOAM: The Open Source CFD Toolbox           |
|  \\    /   O peration     | Version:  2.2.1                                 |
|   \\  /    A nd           | Web:      www.OpenFOAM.org                      |
|    \\/     M anipulation  |                                                 |
\*---------------------------------------------------------------------------*/
FoamFile
{
    version     2.0;
    format      ascii;
    class       dictionary;
    location    "constant";
    object      Xis;
}
// * * * * * * * * * * * * * * * * * * * * * * * * * * * * * * * * * * * * * //
101
(
-8.485281374238571e+00
-8.315575746753799e+00
-8.145870119269029e+00
-7.976164491784257e+00
-7.806458864299485e+00
-7.636753236814714e+00
-7.467047609329943e+00
-7.297341981845172e+00
-7.127636354360400e+00
-6.957930726875628e+00
-6.788225099390857e+00
-6.618519471906086e+00
-6.448813844421315e+00
-6.279108216936542e+00
-6.109402589451772e+00
-5.939696961967000e+00
-5.769991334482229e+00
-5.600285706997457e+00
-5.430580079512685e+00
-5.260874452027915e+00
-5.091168824543143e+00
-4.921463197058372e+00
-4.751757569573600e+00
-4.582051942088828e+00
-4.412346314604058e+00
-4.242640687119286e+00
-4.072935059634514e+00
-3.903229432149743e+00
-3.733523804664972e+00
-3.563818177180201e+00
-3.394112549695429e+00
-3.224406922210657e+00
-3.054701294725886e+00
-2.884995667241115e+00
-2.715290039756344e+00
-2.545584412271571e+00
-2.375878784786800e+00
-2.206173157302029e+00
-2.036467529817258e+00
-1.866761902332486e+00
-1.697056274847714e+00
-1.527350647362943e+00
-1.357645019878172e+00
-1.187939392393401e+00
-1.018233764908629e+00
-8.485281374238580e-01
-6.788225099390859e-01
-5.091168824543146e-01
-3.394112549695443e-01
-1.697056274847721e-01
 0.000000000000000e+00
 1.697056274847704e-01
 3.394112549695425e-01
 5.091168824543129e-01
 6.788225099390850e-01
 8.485281374238571e-01
 1.018233764908627e+00
 1.187939392393400e+00
 1.357645019878170e+00
 1.527350647362942e+00
 1.697056274847714e+00
 1.866761902332485e+00
 2.036467529817257e+00
 2.206173157302027e+00
 2.375878784786799e+00
 2.545584412271571e+00
 2.715290039756342e+00
 2.884995667241114e+00
 3.054701294725884e+00
 3.224406922210656e+00
 3.394112549695429e+00
 3.563818177180199e+00
 3.733523804664971e+00
 3.903229432149741e+00
 4.072935059634514e+00
 4.242640687119286e+00
 4.412346314604056e+00
 4.582051942088828e+00
 4.751757569573599e+00
 4.921463197058371e+00
 5.091168824543143e+00
 5.260874452027913e+00
 5.430580079512685e+00
 5.600285706997456e+00
 5.769991334482228e+00
 5.939696961966998e+00
 6.109402589451770e+00
 6.279108216936542e+00
 6.448813844421313e+00
 6.618519471906085e+00
 6.788225099390855e+00
 6.957930726875627e+00
 7.127636354360400e+00
 7.297341981845170e+00
 7.467047609329942e+00
 7.636753236814712e+00
 7.806458864299483e+00
 7.976164491784257e+00
 8.145870119269027e+00
 8.315575746753797e+00
 8.485281374238571e+00
);