
/*--------------------------------*- C++ -*----------------------------------*\
| =========                 |                                                 |
| \\      /  F ield         | OpenFOAM: The Open Source CFD Toolbox           |
|  \\    /   O peration     | Version:  2.2.1                                 |
|   \\  /    A nd           | Web:      www.OpenFOAM.org                      |
|    \\/     M anipulation  |                                                 |
\*---------------------------------------------------------------------------*/
FoamFile
{
    version     2.0;
    format      ascii;
    class       dictionary;
    location    "constant";
    object      Xis;
}
// * * * * * * * * * * * * * * * * * * * * * * * * * * * * * * * * * * * * * //
32
(
-1.151914903942496e+01
-1.005328298802075e+01
-8.840111009107305e+00
-7.760120376333445e+00
-6.769058500660439e+00
-5.845599856554156e+00
-4.978656221233700e+00
-4.162971346592845e+00
-3.397373743373050e+00
-2.684128832416957e+00
-2.028820988810430e+00
-1.440462659155582e+00
-9.315369851392373e-01
-5.175600552926368e-01
-2.156245872330633e-01
-4.150024946823708e-02
 4.150024946823708e-02
 2.156245872330633e-01
 5.175600552926368e-01
 9.315369851392373e-01
 1.440462659155582e+00
 2.028820988810430e+00
 2.684128832416957e+00
 3.397373743373050e+00
 4.162971346592845e+00
 4.978656221233700e+00
 5.845599856554156e+00
 6.769058500660439e+00
 7.760120376333445e+00
 8.840111009107305e+00
 1.005328298802075e+01
 1.151914903942496e+01
);